It was the best of times, it was in chapter 3. 

NEW LINE. I am in awe!
